Circuit: * C:\Users\dsano\Desktop\Informática\Primero\FFT\Practicas\Practica4\LTS\Pracitca4.asc


Date: Sat Nov 28 21:53:02 2020
Total elapsed time: 0.092 seconds.

tnom = 27
temp = 27
method = trap
totiter = 0
traniter = 0
tranpoints = 0
accept = 0
rejected = 0
matrix size = 3
fillins = 0
solver = Normal

